Circuit: * C:\dev\hardware\Pavoni_Upgrade\simulation\pressure_sensor_frontend.asc

Direct Newton iteration for .op point succeeded.

Date: Wed Jun 29 20:33:10 2022
Total elapsed time: 0.094 seconds.

tnom = 27
temp = 27
method = modified trap
totiter = 2125
traniter = 2088
tranpoints = 1045
accept = 1045
rejected = 0
matrix size = 8
fillins = 1
solver = Normal
Matrix Compiler1:      18 opcodes  0.1/[0.0]/0.1
Matrix Compiler2: off  [0.1]/0.2/0.1

